data_300101-custom
#======================================================================

# CRYSTAL DATA

#----------------------------------------------------------------------

_database_code_custom 300101

_chemical_formula_structural          'Li7 P S6'
_chemical_formula_sum                 'P1 Li7 S6'
_chemical_name_common                  ''handmade
_cell_length_a                         9.99300
_cell_length_b                         9.99300
_cell_length_c                         9.99300
_cell_angle_alpha                      90
_cell_angle_beta                       90
_cell_angle_gamma                      90
_space_group_name_H-M_alt              'F -4 3 m'
_space_group_IT_number                 216

loop_
_symmetry_equiv_pos_as_xyz
   'x, y, z'
   '-x, -y, z'
   '-x, y, -z'
   'x, -y, -z'
   'z, x, y'
   'z, -x, -y'
   '-z, -x, y'
   '-z, x, -y'
   'y, z, x'
   '-y, z, -x'
   'y, -z, -x'
   '-y, -z, x'
   'y, x, z'
   '-y, -x, z'
   'y, -x, -z'
   '-y, x, -z'
   'x, z, y'
   '-x, z, -y'
   '-x, -z, y'
   'x, -z, -y'
   'z, y, x'
   'z, -y, -x'
   '-z, y, -x'
   '-z, -y, x'
   'x, y+1/2, z+1/2'
   '-x, -y+1/2, z+1/2'
   '-x, y+1/2, -z+1/2'
   'x, -y+1/2, -z+1/2'
   'z, x+1/2, y+1/2'
   'z, -x+1/2, -y+1/2'
   '-z, -x+1/2, y+1/2'
   '-z, x+1/2, -y+1/2'
   'y, z+1/2, x+1/2'
   '-y, z+1/2, -x+1/2'
   'y, -z+1/2, -x+1/2'
   '-y, -z+1/2, x+1/2'
   'y, x+1/2, z+1/2'
   '-y, -x+1/2, z+1/2'
   'y, -x+1/2, -z+1/2'
   '-y, x+1/2, -z+1/2'
   'x, z+1/2, y+1/2'
   '-x, z+1/2, -y+1/2'
   '-x, -z+1/2, y+1/2'
   'x, -z+1/2, -y+1/2'
   'z, y+1/2, x+1/2'
   'z, -y+1/2, -x+1/2'
   '-z, y+1/2, -x+1/2'
   '-z, -y+1/2, x+1/2'
   'x+1/2, y, z+1/2'
   '-x+1/2, -y, z+1/2'
   '-x+1/2, y, -z+1/2'
   'x+1/2, -y, -z+1/2'
   'z+1/2, x, y+1/2'
   'z+1/2, -x, -y+1/2'
   '-z+1/2, -x, y+1/2'
   '-z+1/2, x, -y+1/2'
   'y+1/2, z, x+1/2'
   '-y+1/2, z, -x+1/2'
   'y+1/2, -z, -x+1/2'
   '-y+1/2, -z, x+1/2'
   'y+1/2, x, z+1/2'
   '-y+1/2, -x, z+1/2'
   'y+1/2, -x, -z+1/2'
   '-y+1/2, x, -z+1/2'
   'x+1/2, z, y+1/2'
   '-x+1/2, z, -y+1/2'
   '-x+1/2, -z, y+1/2'
   'x+1/2, -z, -y+1/2'
   'z+1/2, y, x+1/2'
   'z+1/2, -y, -x+1/2'
   '-z+1/2, y, -x+1/2'
   '-z+1/2, -y, x+1/2'
   'x+1/2, y+1/2, z'
   '-x+1/2, -y+1/2, z'
   '-x+1/2, y+1/2, -z'
   'x+1/2, -y+1/2, -z'
   'z+1/2, x+1/2, y'
   'z+1/2, -x+1/2, -y'
   '-z+1/2, -x+1/2, y'
   '-z+1/2, x+1/2, -y'
   'y+1/2, z+1/2, x'
   '-y+1/2, z+1/2, -x'
   'y+1/2, -z+1/2, -x'
   '-y+1/2, -z+1/2, x'
   'y+1/2, x+1/2, z'
   '-y+1/2, -x+1/2, z'
   'y+1/2, -x+1/2, -z'
   '-y+1/2, x+1/2, -z'
   'x+1/2, z+1/2, y'
   '-x+1/2, z+1/2, -y'
   '-x+1/2, -z+1/2, y'
   'x+1/2, -z+1/2, -y'
   'z+1/2, y+1/2, x'
   'z+1/2, -y+1/2, -x'
   '-z+1/2, y+1/2, -x'
   '-z+1/2, -y+1/2, x'
loop_
   _atom_type_symbol
   _atom_type_oxidation_number
   Li+    1
   P5+    5
   S2-    -2
   
loop_
   _atom_site_label
   _atom_site_occupancy
   _atom_site_fract_x
   _atom_site_fract_y
   _atom_site_fract_z
   _atom_site_adp_type
   _atom_site_B_iso_or_equiv
   _atom_site_type_symbol
   P          1.0     0.500000      0.500000      0.500000     Biso  1.000000 P
   S1         1.0     0.618080      0.618080      0.618080     Biso  1.000000 S
   S2         1.0     0.250000      0.250000      0.250000     Biso  1.000000 S
   Li         0.5300  0.817000      0.476000      0.683000     Biso  1.000000 Li
   S3         1.0     0.000000      0.000000      0.000000     Biso  1.000000 S
