data_200008-custom
#======================================================================

# CRYSTAL DATA

#----------------------------------------------------------------------

_database_code_custom 200008

_chemical_formula_structural       'Li6.5 La3 Zr1.5 Ta0.5 O12'
_chemical_formula_sum              'Li6.5 La3 Zr1.5 Ta0.5 O12'
_chemical_name_common                  ''handmade
_cell_length_a                         12.94500
_cell_length_b                         12.94500
_cell_length_c                         12.94500
_cell_angle_alpha                      90
_cell_angle_beta                       90
_cell_angle_gamma                      90
_space_group_name_H-M_alt              'I a -3 d'
_space_group_IT_number                 230

loop_
_symmetry_equiv_pos_as_xyz
   'x, y, z'
   '-x, -y, -z'
   '-x+1/2, -y, z+1/2'
   'x+1/2, y, -z+1/2'
   '-x, y+1/2, -z+1/2'
   'x, -y+1/2, z+1/2'
   'x+1/2, -y+1/2, -z'
   '-x+1/2, y+1/2, z'
   'z, x, y'
   '-z, -x, -y'
   'z+1/2, -x+1/2, -y'
   '-z+1/2, x+1/2, y'
   '-z+1/2, -x, y+1/2'
   'z+1/2, x, -y+1/2'
   '-z, x+1/2, -y+1/2'
   'z, -x+1/2, y+1/2'
   'y, z, x'
   '-y, -z, -x'
   '-y, z+1/2, -x+1/2'
   'y, -z+1/2, x+1/2'
   'y+1/2, -z+1/2, -x'
   '-y+1/2, z+1/2, x'
   '-y+1/2, -z, x+1/2'
   'y+1/2, z, -x+1/2'
   'y+3/4, x+1/4, -z+1/4'
   '-y+1/4, -x+3/4, z+3/4'
   '-y+3/4, -x+3/4, -z+3/4'
   'y+1/4, x+1/4, z+1/4'
   'y+1/4, -x+1/4, z+3/4'
   '-y+3/4, x+3/4, -z+1/4'
   '-y+1/4, x+3/4, z+1/4'
   'y+3/4, -x+1/4, -z+3/4'
   'x+3/4, z+1/4, -y+1/4'
   '-x+1/4, -z+3/4, y+3/4'
   '-x+1/4, z+3/4, y+1/4'
   'x+3/4, -z+1/4, -y+3/4'
   '-x+3/4, -z+3/4, -y+3/4'
   'x+1/4, z+1/4, y+1/4'
   'x+1/4, -z+1/4, y+3/4'
   '-x+3/4, z+3/4, -y+1/4'
   'z+3/4, y+1/4, -x+1/4'
   '-z+1/4, -y+3/4, x+3/4'
   'z+1/4, -y+1/4, x+3/4'
   '-z+3/4, y+3/4, -x+1/4'
   '-z+1/4, y+3/4, x+1/4'
   'z+3/4, -y+1/4, -x+3/4'
   '-z+3/4, -y+3/4, -x+3/4'
   'z+1/4, y+1/4, x+1/4'
   'x+1/2, y+1/2, z+1/2'
   '-x+1/2, -y+1/2, -z+1/2'
   '-x, -y+1/2, z'
   'x, y+1/2, -z'
   '-x+1/2, y, -z'
   'x+1/2, -y, z'
   'x, -y, -z+1/2'
   '-x, y, z+1/2'
   'z+1/2, x+1/2, y+1/2'
   '-z+1/2, -x+1/2, -y+1/2'
   'z, -x, -y+1/2'
   '-z, x, y+1/2'
   '-z, -x+1/2, y'
   'z, x+1/2, -y'
   '-z+1/2, x, -y'
   'z+1/2, -x, y'
   'y+1/2, z+1/2, x+1/2'
   '-y+1/2, -z+1/2, -x+1/2'
   '-y+1/2, z, -x'
   'y+1/2, -z, x'
   'y, -z, -x+1/2'
   '-y, z, x+1/2'
   '-y, -z+1/2, x'
   'y, z+1/2, -x'
   'y+1/4, x+3/4, -z+3/4'
   '-y+3/4, -x+1/4, z+1/4'
   '-y+1/4, -x+1/4, -z+1/4'
   'y+3/4, x+3/4, z+3/4'
   'y+3/4, -x+3/4, z+1/4'
   '-y+1/4, x+1/4, -z+3/4'
   '-y+3/4, x+1/4, z+3/4'
   'y+1/4, -x+3/4, -z+1/4'
   'x+1/4, z+3/4, -y+3/4'
   '-x+3/4, -z+1/4, y+1/4'
   '-x+3/4, z+1/4, y+3/4'
   'x+1/4, -z+3/4, -y+1/4'
   '-x+1/4, -z+1/4, -y+1/4'
   'x+3/4, z+3/4, y+3/4'
   'x+3/4, -z+3/4, y+1/4'
   '-x+1/4, z+1/4, -y+3/4'
   'z+1/4, y+3/4, -x+3/4'
   '-z+3/4, -y+1/4, x+1/4'
   'z+3/4, -y+3/4, x+1/4'
   '-z+1/4, y+1/4, -x+3/4'
   '-z+3/4, y+1/4, x+3/4'
   'z+1/4, -y+3/4, -x+1/4'
   '-z+1/4, -y+1/4, -x+1/4'
   'z+3/4, y+3/4, x+3/4'
loop_
_atom_type_symbol
_atom_type_oxidation_number
La3+	3
Li1+	1
O2-	-2
Zr4+	4
Ta5+    5
loop_
   _atom_site_label
   _atom_site_occupancy
   _atom_site_fract_x
   _atom_site_fract_y
   _atom_site_fract_z
   _atom_site_adp_type
   _atom_site_B_iso_or_equiv
   _atom_site_type_symbol
   Li         0.3880  0.375000      0.000000      0.250000     Biso  1.000000 Li
   Li         0.2880  0.125000      0.683500      0.566400     Biso  1.000000 Li
   Li         0.2470  0.092900      0.192700      0.424100     Biso  1.000000 Li
   La         1.0     0.125000      0.000000      0.250000     Biso  1.000000 La
   Zr         0.7500  0.000000      0.000000      0.000000     Biso  1.000000 Zr
   Ta         0.2500  0.000000      0.000000      0.000000     Biso  1.000000 Ta
   O          0.9900  0.101500      0.197500      0.280700     Biso  1.000000 O
