data_100002-custom
#======================================================================

# CRYSTAL DATA

#----------------------------------------------------------------------

_database_code_custom 100002

_chemical_formula_structural           'Na1.15 Sn1.85 Al0.15 (P O4)3'
_chemical_formula_sum                  'Na1.15 Sn1.85 Al0.15 P3 O12'
_chemical_name_common                  ''handmade
_cell_length_a                         8.53460
_cell_length_b                         8.53460
_cell_length_c                         22.38470
_cell_angle_alpha                      90
_cell_angle_beta                       90
_cell_angle_gamma                      120
_space_group_name_H-M_alt              'R -3'
_space_group_IT_number                 148

loop_
_symmetry_equiv_pos_as_xyz
   'x, y, z'
   '-x, -y, -z'
   '-y, x-y, z'
   'y, -x+y, -z'
   '-x+y, -x, z'
   'x-y, x, -z'
   'x+2/3, y+1/3, z+1/3'
   '-x+2/3, -y+1/3, -z+1/3'
   '-y+2/3, x-y+1/3, z+1/3'
   'y+2/3, -x+y+1/3, -z+1/3'
   '-x+y+2/3, -x+1/3, z+1/3'
   'x-y+2/3, x+1/3, -z+1/3'
   'x+1/3, y+2/3, z+2/3'
   '-x+1/3, -y+2/3, -z+2/3'
   '-y+1/3, x-y+2/3, z+2/3'
   'y+1/3, -x+y+2/3, -z+2/3'
   '-x+y+1/3, -x+2/3, z+2/3'
   'x-y+1/3, x+2/3, -z+2/3'

loop_
   _atom_site_label
   _atom_site_occupancy
   _atom_site_fract_x
   _atom_site_fract_y
   _atom_site_fract_z
   _atom_site_adp_type
   _atom_site_B_iso_or_equiv
   _atom_site_type_symbol
   Na(1a)     1.0     0.000000      0.000000      0.000000     Biso  1.000000 Na
   Na(1b)     1.0     0.000000      0.000000      0.500000     Biso  1.000000 Na
   Na2        0.0560  0.650000      0.000000      0.250000     Biso  1.000000 Na
   Sn(1a)     1.0     0.000000      0.000000      0.147900     Biso  1.000000 Sn
   Sn(1b)     0.8520  0.000000      0.000000      0.645100     Biso  1.000000 Sn
   Al(1b)     0.0000  0.000000      0.000000      0.147900     Biso  1.000000 Al
   Al(1b)     0.1480  0.000000      0.000000      0.645100     Biso  1.000000 Al
   P          1.0     0.291000      0.002400      0.251600     Biso  1.000000 P
   O(1a)      1.0     0.194000     -0.012800      0.193400     Biso  1.000000 O
   O(1b)      1.0     0.046600      0.830000      0.695700     Biso  1.000000 O
   O(2a)      1.0     0.175600      0.182600      0.086900     Biso  1.000000 O
   O(2b)      1.0     0.850400      0.794600      0.590300     Biso  1.000000 O

loop_
   _atom_type_symbol
   _atom_type_oxidation_number
   Na+    1
   Sn4+   +4
   Al3+   +3
   P5+    +5
   O2-    -2