data_100008-custom
#======================================================================

# CRYSTAL DATA

#----------------------------------------------------------------------

_database_code_custom 100008

_chemical_formula_structural           'Na1.4 Ti1.6 Al0.4 (P O4)3'
_chemical_formula_sum                  'Na1.4 Ti1.6 Al0.4 P3 O12'
_chemical_name_common                  ''handmade
_cell_length_a                         8.48250
_cell_length_b                         8.48250
_cell_length_c                         21.73150
_cell_angle_alpha                      90
_cell_angle_beta                       90
_cell_angle_gamma                      120
_space_group_name_H-M_alt              'R -3 c'
_space_group_IT_number                 167

loop_
_symmetry_equiv_pos_as_xyz
   'x, y, z'
   '-x, -y, -z'
   '-y, x-y, z'
   'y, -x+y, -z'
   '-x+y, -x, z'
   'x-y, x, -z'
   'y, x, -z+1/2'
   '-y, -x, z+1/2'
   'x-y, -y, -z+1/2'
   '-x+y, y, z+1/2'
   '-x, -x+y, -z+1/2'
   'x, x-y, z+1/2'
   'x+2/3, y+1/3, z+1/3'
   '-x+2/3, -y+1/3, -z+1/3'
   '-y+2/3, x-y+1/3, z+1/3'
   'y+2/3, -x+y+1/3, -z+1/3'
   '-x+y+2/3, -x+1/3, z+1/3'
   'x-y+2/3, x+1/3, -z+1/3'
   'y+2/3, x+1/3, -z+5/6'
   '-y+2/3, -x+1/3, z+5/6'
   'x-y+2/3, -y+1/3, -z+5/6'
   '-x+y+2/3, y+1/3, z+5/6'
   '-x+2/3, -x+y+1/3, -z+5/6'
   'x+2/3, x-y+1/3, z+5/6'
   'x+1/3, y+2/3, z+2/3'
   '-x+1/3, -y+2/3, -z+2/3'
   '-y+1/3, x-y+2/3, z+2/3'
   'y+1/3, -x+y+2/3, -z+2/3'
   '-x+y+1/3, -x+2/3, z+2/3'
   'x-y+1/3, x+2/3, -z+2/3'
   'y+1/3, x+2/3, -z+1/6'
   '-y+1/3, -x+2/3, z+1/6'
   'x-y+1/3, -y+2/3, -z+1/6'
   '-x+y+1/3, y+2/3, z+1/6'
   '-x+1/3, -x+y+2/3, -z+1/6'
   'x+1/3, x-y+2/3, z+1/6'

loop_
   _atom_site_label
   _atom_site_occupancy
   _atom_site_fract_x
   _atom_site_fract_y
   _atom_site_fract_z
   _atom_site_adp_type
   _atom_site_B_iso_or_equiv
   _atom_site_type_symbol
   O2         1.0     0.190700      0.163900      0.087800     Biso  1.000000 O
   O1         1.0     0.173900     -0.027770      0.192300     Biso  1.000000 O
   P          1.0     0.287600      0.000000      0.250000     Biso  1.000000 P
   Al         0.2000  0.000000      0.000000      0.145200     Biso  1.000000 Al
   Ti         0.8000  0.000000      0.000000      0.145200     Biso  1.000000 Ti
   Na2        0.1330  0.616000      0.000000      0.250000     Biso  1.000000 Na
   Na1        1.0     0.000000      0.000000      0.000000     Biso  1.000000 Na

loop_
   _atom_type_symbol
   _atom_type_oxidation_number
   Na+    +1
   Ti4+   +4
   Al3+   +3
   P5+    +5
   O2-    -2